<?xml version="1.0" encoding="UTF-8"?>

<!-- generated on 2021-11-01 00:53:06 by Eclipse SUMO netedit Version 1.10.0
<configuration xmlns:xsi="http://www.w3.org/2001/XMLSchema-instance" xsi:noNamespaceSchemaLocation="http://sumo.dlr.de/xsd/netconvertConfiguration.xsd">

    <input>
        <sumo-net-file value="C:\Users\Admin\Desktop\Quick.net.xml"/>
    </input>

    <output>
        <output-file value="C:\Users\Admin\Desktop\QuickStart\quickstart.net.xml"/>
    </output>

    <processing>
        <geometry.min-radius.fix.railways value="false"/>
        <geometry.max-grade.fix value="false"/>
        <offset.disable-normalization value="true"/>
        <lefthand value="false"/>
    </processing>

    <junctions>
        <no-turnarounds value="true"/>
        <junctions.corner-detail value="5"/>
        <junctions.limit-turn-speed value="5.5"/>
        <rectangular-lane-cut value="false"/>
    </junctions>

    <pedestrian>
        <walkingareas value="false"/>
    </pedestrian>

    <report>
        <aggregate-warnings value="5"/>
    </report>

</configuration>
-->

<net version="1.9" junctionCornerDetail="5" limitTurnSpeed="5.50" xmlns:xsi="http://www.w3.org/2001/XMLSchema-instance" xsi:noNamespaceSchemaLocation="http://sumo.dlr.de/xsd/net_file.xsd">

    <location netOffset="0.00,0.00" convBoundary="-300.00,0.00,800.00,300.00" origBoundary="-10000000000.00,-10000000000.00,10000000000.00,10000000000.00" projParameter="!"/>

    <edge id=":1_0" function="internal">
        <lane id=":1_0_0" index="0" speed="13.89" length="8.00" shape="4.00,308.00 -4.00,308.00"/>
        <lane id=":1_0_1" index="1" speed="13.89" length="8.00" shape="4.00,304.80 -4.00,304.80"/>
        <lane id=":1_0_2" index="2" speed="13.89" length="8.00" shape="4.00,301.60 -4.00,301.60"/>
    </edge>
    <edge id=":1_3" function="internal">
        <lane id=":1_3_0" index="0" speed="13.89" length="8.27" shape="-4.00,295.20 -1.54,294.70 0.00,293.60 1.54,292.50 4.00,292.00"/>
        <lane id=":1_3_1" index="1" speed="13.89" length="8.27" shape="-4.00,295.20 4.00,295.20"/>
        <lane id=":1_3_2" index="2" speed="13.89" length="8.27" shape="-4.00,298.40 4.00,298.40"/>
    </edge>
    <edge id=":2_0" function="internal">
        <lane id=":2_0_0" index="0" speed="13.89" length="8.00" shape="4.00,8.00 -4.00,8.00"/>
        <lane id=":2_0_1" index="1" speed="13.89" length="8.00" shape="4.00,4.80 -4.00,4.80"/>
        <lane id=":2_0_2" index="2" speed="13.89" length="8.00" shape="4.00,1.60 -4.00,1.60"/>
    </edge>
    <edge id=":2_3" function="internal">
        <lane id=":2_3_0" index="0" speed="13.89" length="8.54" shape="-4.00,-4.80 -1.54,-5.30 -0.00,-6.40 1.54,-7.50 4.00,-8.00"/>
        <lane id=":2_3_1" index="1" speed="13.89" length="8.54" shape="-4.00,-1.60 -1.54,-2.10 -0.00,-3.20 1.54,-4.30 4.00,-4.80"/>
        <lane id=":2_3_2" index="2" speed="13.89" length="8.54" shape="-4.00,-1.60 4.00,-1.60"/>
    </edge>
    <edge id=":3_0" function="internal">
        <lane id=":3_0_0" index="0" speed="6.51" length="9.03" shape="142.00,13.60 141.65,11.15 140.60,9.40 138.85,8.35 136.40,8.00"/>
    </edge>
    <edge id=":3_1" function="internal">
        <lane id=":3_1_0" index="0" speed="11.36" length="29.67" shape="145.20,13.60 146.35,5.55 149.80,-0.20 155.55,-3.65 163.60,-4.80"/>
        <lane id=":3_1_1" index="1" speed="10.36" length="24.51" shape="148.40,13.60 149.35,6.95 152.20,2.20 156.95,-0.65 163.60,-1.60"/>
    </edge>
    <edge id=":3_3" function="internal">
        <lane id=":3_3_0" index="0" speed="6.51" length="9.03" shape="163.60,8.00 161.15,8.35 159.40,9.40 158.35,11.15 158.00,13.60"/>
    </edge>
    <edge id=":3_4" function="internal">
        <lane id=":3_4_0" index="0" speed="13.89" length="27.20" shape="163.60,8.00 136.40,8.00"/>
    </edge>
    <edge id=":3_5" function="internal">
        <lane id=":3_5_0" index="0" speed="8.00" length="5.93" shape="163.60,4.80 159.75,5.35 158.00,6.40"/>
        <lane id=":3_5_1" index="1" speed="8.67" length="7.89" shape="163.60,4.80 158.35,5.35 155.96,6.40"/>
    </edge>
    <edge id=":3_7" function="internal">
        <lane id=":3_7_0" index="0" speed="13.89" length="27.28" shape="163.60,4.80 155.50,5.30 150.00,6.40 144.50,7.50 136.40,8.00"/>
        <lane id=":3_7_1" index="1" speed="13.89" length="27.28" shape="163.60,4.80 136.40,4.80"/>
        <lane id=":3_7_2" index="2" speed="13.89" length="27.28" shape="163.60,1.60 136.40,1.60"/>
    </edge>
    <edge id=":3_17" function="internal">
        <lane id=":3_17_0" index="0" speed="8.00" length="8.26" shape="158.00,6.40 157.00,7.00 155.35,9.75 154.80,13.60"/>
    </edge>
    <edge id=":3_18" function="internal">
        <lane id=":3_18_0" index="0" speed="8.67" length="8.97" shape="155.96,6.40 154.60,7.00 152.35,9.75 151.60,13.60"/>
    </edge>
    <edge id=":3_10" function="internal">
        <lane id=":3_10_0" index="0" speed="13.89" length="27.28" shape="136.40,-8.00 163.60,-8.00"/>
        <lane id=":3_10_1" index="1" speed="13.89" length="27.28" shape="136.40,-4.80 163.60,-4.80"/>
        <lane id=":3_10_2" index="2" speed="13.89" length="27.28" shape="136.40,-4.80 144.50,-4.30 150.00,-3.20 155.50,-2.10 163.60,-1.60"/>
    </edge>
    <edge id=":3_13" function="internal">
        <lane id=":3_13_0" index="0" speed="11.84" length="17.34" shape="136.40,-4.80 145.85,-3.65 152.60,-0.20 152.74,0.00"/>
        <lane id=":3_13_1" index="1" speed="11.36" length="15.07" shape="136.40,-4.80 144.45,-3.65 150.20,-0.20 150.32,0.00"/>
    </edge>
    <edge id=":3_15" function="internal">
        <lane id=":3_15_0" index="0" speed="13.89" length="27.20" shape="136.40,-1.60 163.60,-1.60"/>
    </edge>
    <edge id=":3_16" function="internal">
        <lane id=":3_16_0" index="0" speed="10.36" length="7.98" shape="136.40,-1.60 143.05,-0.65 144.13,0.00"/>
    </edge>
    <edge id=":3_19" function="internal">
        <lane id=":3_19_0" index="0" speed="11.84" length="14.95" shape="152.74,0.00 156.65,5.55 158.00,13.60"/>
    </edge>
    <edge id=":3_20" function="internal">
        <lane id=":3_20_0" index="0" speed="11.36" length="14.60" shape="150.32,0.00 153.65,5.55 154.80,13.60"/>
    </edge>
    <edge id=":3_21" function="internal">
        <lane id=":3_21_0" index="0" speed="10.36" length="16.53" shape="144.13,0.00 147.80,2.20 150.65,6.95 151.60,13.60"/>
    </edge>
    <edge id=":4_0" function="internal">
        <lane id=":4_0_0" index="0" speed="13.89" length="8.54" shape="304.00,4.80 301.54,5.30 300.00,6.40 298.46,7.50 296.00,8.00"/>
        <lane id=":4_0_1" index="1" speed="13.89" length="8.54" shape="304.00,1.60 301.54,2.10 300.00,3.20 298.46,4.30 296.00,4.80"/>
        <lane id=":4_0_2" index="2" speed="13.89" length="8.54" shape="304.00,1.60 296.00,1.60"/>
    </edge>
    <edge id=":4_3" function="internal">
        <lane id=":4_3_0" index="0" speed="13.89" length="8.00" shape="296.00,-8.00 304.00,-8.00"/>
        <lane id=":4_3_1" index="1" speed="13.89" length="8.00" shape="296.00,-4.80 304.00,-4.80"/>
        <lane id=":4_3_2" index="2" speed="13.89" length="8.00" shape="296.00,-1.60 304.00,-1.60"/>
    </edge>
    <edge id=":5_0" function="internal">
        <lane id=":5_0_0" index="0" speed="13.89" length="8.54" shape="304.00,304.80 301.54,305.30 300.00,306.40 298.46,307.50 296.00,308.00"/>
        <lane id=":5_0_1" index="1" speed="13.89" length="8.54" shape="304.00,301.60 301.54,302.10 300.00,303.20 298.46,304.30 296.00,304.80"/>
        <lane id=":5_0_2" index="2" speed="13.89" length="8.54" shape="304.00,301.60 296.00,301.60"/>
    </edge>
    <edge id=":5_3" function="internal">
        <lane id=":5_3_0" index="0" speed="13.89" length="8.00" shape="296.00,292.00 304.00,292.00"/>
        <lane id=":5_3_1" index="1" speed="13.89" length="8.00" shape="296.00,295.20 304.00,295.20"/>
        <lane id=":5_3_2" index="2" speed="13.89" length="8.00" shape="296.00,298.40 304.00,298.40"/>
    </edge>
    <edge id=":6_0" function="internal">
        <lane id=":6_0_0" index="0" speed="13.89" length="27.26" shape="163.60,308.00 136.40,308.00"/>
        <lane id=":6_0_1" index="1" speed="13.89" length="27.26" shape="163.60,304.80 136.40,304.80"/>
        <lane id=":6_0_2" index="2" speed="13.89" length="27.26" shape="163.60,304.80 155.50,304.30 150.00,303.20 144.50,302.10 136.40,301.60"/>
        <lane id=":6_0_3" index="3" speed="13.89" length="27.26" shape="163.60,301.60 136.40,301.60"/>
    </edge>
    <edge id=":6_4" function="internal">
        <lane id=":6_4_0" index="0" speed="10.88" length="9.57" shape="163.60,301.60 155.55,300.65 154.24,300.00"/>
        <lane id=":6_4_1" index="1" speed="10.36" length="7.98" shape="163.60,301.60 156.95,300.65 155.87,300.00"/>
    </edge>
    <edge id=":6_17" function="internal">
        <lane id=":6_17_0" index="0" speed="10.88" length="17.57" shape="154.24,300.00 149.80,297.80 146.35,293.05 145.20,286.40"/>
    </edge>
    <edge id=":6_18" function="internal">
        <lane id=":6_18_0" index="0" speed="10.36" length="16.53" shape="155.87,300.00 152.20,297.80 149.35,293.05 148.40,286.40"/>
    </edge>
    <edge id=":6_6" function="internal">
        <lane id=":6_6_0" index="0" speed="6.51" length="9.03" shape="158.00,286.40 158.35,288.85 159.40,290.60 161.15,291.65 163.60,292.00"/>
        <lane id=":6_6_1" index="1" speed="8.00" length="14.19" shape="154.80,286.40 155.35,290.25 157.00,293.00 159.75,294.65 163.60,295.20"/>
        <lane id=":6_6_2" index="2" speed="8.67" length="16.85" shape="154.80,286.40 155.35,291.65 157.00,295.40 159.75,297.65 163.60,298.40"/>
    </edge>
    <edge id=":6_9" function="internal">
        <lane id=":6_9_0" index="0" speed="11.36" length="29.67" shape="154.80,286.40 153.65,294.45 150.20,300.20 144.45,303.65 136.40,304.80"/>
        <lane id=":6_9_1" index="1" speed="10.36" length="24.51" shape="151.60,286.40 150.65,293.05 147.80,297.80 143.05,300.65 136.40,301.60"/>
    </edge>
    <edge id=":6_11" function="internal">
        <lane id=":6_11_0" index="0" speed="6.51" length="9.03" shape="136.40,292.00 138.85,291.65 140.60,290.60 141.65,288.85 142.00,286.40"/>
    </edge>
    <edge id=":6_12" function="internal">
        <lane id=":6_12_0" index="0" speed="13.89" length="27.20" shape="136.40,292.00 163.60,292.00"/>
    </edge>
    <edge id=":6_13" function="internal">
        <lane id=":6_13_0" index="0" speed="8.00" length="5.93" shape="136.40,295.20 140.25,294.65 142.00,293.60"/>
    </edge>
    <edge id=":6_14" function="internal">
        <lane id=":6_14_0" index="0" speed="13.89" length="27.28" shape="136.40,295.20 144.50,294.70 150.00,293.60 155.50,292.50 163.60,292.00"/>
        <lane id=":6_14_1" index="1" speed="13.89" length="27.28" shape="136.40,295.20 163.60,295.20"/>
        <lane id=":6_14_2" index="2" speed="13.89" length="27.28" shape="136.40,298.40 163.60,298.40"/>
    </edge>
    <edge id=":6_19" function="internal">
        <lane id=":6_19_0" index="0" speed="8.00" length="8.26" shape="142.00,293.60 143.00,293.00 144.65,290.25 145.20,286.40"/>
    </edge>
    <edge id=":911_0" function="internal">
        <lane id=":911_0_0" index="0" speed="13.89" length="0.10" shape="-150.00,308.00 -150.00,308.00"/>
        <lane id=":911_0_1" index="1" speed="13.89" length="0.10" shape="-150.00,304.80 -150.00,304.80"/>
        <lane id=":911_0_2" index="2" speed="13.89" length="0.10" shape="-150.00,301.60 -150.00,301.60"/>
    </edge>
    <edge id=":911_3" function="internal">
        <lane id=":911_3_0" index="0" speed="13.89" length="0.10" shape="-150.00,295.20 -150.00,295.20"/>
        <lane id=":911_3_1" index="1" speed="13.89" length="0.10" shape="-150.00,298.40 -150.00,298.40"/>
    </edge>
    <edge id=":912_0" function="internal">
        <lane id=":912_0_0" index="0" speed="13.89" length="0.10" shape="-150.00,8.00 -150.00,8.00"/>
        <lane id=":912_0_1" index="1" speed="13.89" length="0.10" shape="-150.00,4.80 -150.00,4.80"/>
        <lane id=":912_0_2" index="2" speed="13.89" length="0.10" shape="-150.00,1.60 -150.00,1.60"/>
    </edge>
    <edge id=":912_3" function="internal">
        <lane id=":912_3_0" index="0" speed="13.89" length="0.10" shape="-150.00,-4.80 -150.00,-4.80"/>
        <lane id=":912_3_1" index="1" speed="13.89" length="0.10" shape="-150.00,-1.60 -150.00,-1.60"/>
    </edge>
    <edge id=":913_0" function="internal">
        <lane id=":913_0_0" index="0" speed="13.89" length="0.10" shape="500.00,4.80 500.00,4.80"/>
        <lane id=":913_0_1" index="1" speed="13.89" length="0.10" shape="500.00,1.60 500.00,1.60"/>
    </edge>
    <edge id=":913_2" function="internal">
        <lane id=":913_2_0" index="0" speed="13.89" length="0.10" shape="500.00,-8.00 500.00,-8.00"/>
        <lane id=":913_2_1" index="1" speed="13.89" length="0.10" shape="500.00,-4.80 500.00,-4.80"/>
        <lane id=":913_2_2" index="2" speed="13.89" length="0.10" shape="500.00,-1.60 500.00,-1.60"/>
    </edge>
    <edge id=":914_0" function="internal">
        <lane id=":914_0_0" index="0" speed="13.89" length="0.10" shape="500.00,304.80 500.00,304.80"/>
        <lane id=":914_0_1" index="1" speed="13.89" length="0.10" shape="500.00,301.60 500.00,301.60"/>
    </edge>
    <edge id=":914_2" function="internal">
        <lane id=":914_2_0" index="0" speed="13.89" length="0.10" shape="500.00,292.00 500.00,292.00"/>
        <lane id=":914_2_1" index="1" speed="13.89" length="0.10" shape="500.00,295.20 500.00,295.20"/>
        <lane id=":914_2_2" index="2" speed="13.89" length="0.10" shape="500.00,298.40 500.00,298.40"/>
    </edge>

    <edge id="D1" from="911" to="91" priority="1">
        <lane id="D1_0" index="0" speed="13.89" length="150.00" shape="-150.00,308.00 -300.00,308.00"/>
        <lane id="D1_1" index="1" speed="13.89" length="150.00" shape="-150.00,304.80 -300.00,304.80"/>
        <lane id="D1_2" index="2" speed="13.89" length="150.00" shape="-150.00,301.60 -300.00,301.60"/>
    </edge>
    <edge id="D2" from="91" to="911" priority="1">
        <lane id="D2_0" index="0" speed="13.89" length="150.00" shape="-300.00,295.20 -150.00,295.20"/>
        <lane id="D2_1" index="1" speed="13.89" length="150.00" shape="-300.00,298.40 -150.00,298.40"/>
    </edge>
    <edge id="D3" from="912" to="92" priority="1">
        <lane id="D3_0" index="0" speed="13.89" length="150.00" shape="-150.00,8.00 -300.00,8.00"/>
        <lane id="D3_1" index="1" speed="13.89" length="150.00" shape="-150.00,4.80 -300.00,4.80"/>
        <lane id="D3_2" index="2" speed="13.89" length="150.00" shape="-150.00,1.60 -300.00,1.60"/>
    </edge>
    <edge id="D4" from="92" to="912" priority="1">
        <lane id="D4_0" index="0" speed="13.89" length="150.00" shape="-300.00,-4.80 -150.00,-4.80"/>
        <lane id="D4_1" index="1" speed="13.89" length="150.00" shape="-300.00,-1.60 -150.00,-1.60"/>
    </edge>
    <edge id="D5" from="913" to="93" priority="1">
        <lane id="D5_0" index="0" speed="13.89" length="300.00" shape="500.00,-8.00 800.00,-8.00"/>
        <lane id="D5_1" index="1" speed="13.89" length="300.00" shape="500.00,-4.80 800.00,-4.80"/>
        <lane id="D5_2" index="2" speed="13.89" length="300.00" shape="500.00,-1.60 800.00,-1.60"/>
    </edge>
    <edge id="D6" from="93" to="913" priority="1">
        <lane id="D6_0" index="0" speed="13.89" length="300.00" shape="800.00,4.80 500.00,4.80"/>
        <lane id="D6_1" index="1" speed="13.89" length="300.00" shape="800.00,1.60 500.00,1.60"/>
    </edge>
    <edge id="D7" from="914" to="94" priority="1">
        <lane id="D7_0" index="0" speed="13.89" length="300.00" shape="500.00,292.00 800.00,292.00"/>
        <lane id="D7_1" index="1" speed="13.89" length="300.00" shape="500.00,295.20 800.00,295.20"/>
        <lane id="D7_2" index="2" speed="13.89" length="300.00" shape="500.00,298.40 800.00,298.40"/>
    </edge>
    <edge id="D8" from="94" to="914" priority="1">
        <lane id="D8_0" index="0" speed="13.89" length="300.00" shape="800.00,304.80 500.00,304.80"/>
        <lane id="D8_1" index="1" speed="13.89" length="300.00" shape="800.00,301.60 500.00,301.60"/>
    </edge>
    <edge id="L1" from="1" to="911" priority="1">
        <lane id="L1_0" index="0" speed="13.89" length="146.00" shape="-4.00,308.00 -150.00,308.00"/>
        <lane id="L1_1" index="1" speed="13.89" length="146.00" shape="-4.00,304.80 -150.00,304.80"/>
        <lane id="L1_2" index="2" speed="13.89" length="146.00" shape="-4.00,301.60 -150.00,301.60"/>
    </edge>
    <edge id="L10" from="6" to="5" priority="1">
        <lane id="L10_0" index="0" speed="13.89" length="132.40" shape="163.60,292.00 296.00,292.00"/>
        <lane id="L10_1" index="1" speed="13.89" length="132.40" shape="163.60,295.20 296.00,295.20"/>
        <lane id="L10_2" index="2" speed="13.89" length="132.40" shape="163.60,298.40 296.00,298.40"/>
    </edge>
    <edge id="L11" from="6" to="1" priority="1">
        <lane id="L11_0" index="0" speed="13.89" length="132.40" shape="136.40,308.00 4.00,308.00"/>
        <lane id="L11_1" index="1" speed="13.89" length="132.40" shape="136.40,304.80 4.00,304.80"/>
        <lane id="L11_2" index="2" speed="13.89" length="132.40" shape="136.40,301.60 4.00,301.60"/>
    </edge>
    <edge id="L12" from="1" to="6" priority="1">
        <lane id="L12_0" index="0" speed="13.89" length="132.40" shape="4.00,292.00 136.40,292.00"/>
        <lane id="L12_1" index="1" speed="13.89" length="132.40" shape="4.00,295.20 136.40,295.20"/>
        <lane id="L12_2" index="2" speed="13.89" length="132.40" shape="4.00,298.40 136.40,298.40"/>
    </edge>
    <edge id="L13" from="3" to="2" priority="1">
        <lane id="L13_0" index="0" speed="13.89" length="132.40" shape="136.40,8.00 4.00,8.00"/>
        <lane id="L13_1" index="1" speed="13.89" length="132.40" shape="136.40,4.80 4.00,4.80"/>
        <lane id="L13_2" index="2" speed="13.89" length="132.40" shape="136.40,1.60 4.00,1.60"/>
    </edge>
    <edge id="L14" from="2" to="3" priority="1">
        <lane id="L14_0" index="0" speed="13.89" length="132.40" shape="4.00,-8.00 136.40,-8.00"/>
        <lane id="L14_1" index="1" speed="13.89" length="132.40" shape="4.00,-4.80 136.40,-4.80"/>
        <lane id="L14_2" index="2" speed="13.89" length="132.40" shape="4.00,-1.60 136.40,-1.60"/>
    </edge>
    <edge id="L15" from="6" to="3" priority="1">
        <lane id="L15_0" index="0" speed="13.89" length="272.80" shape="142.00,286.40 142.00,13.60"/>
        <lane id="L15_1" index="1" speed="13.89" length="272.80" shape="145.20,286.40 145.20,13.60"/>
        <lane id="L15_2" index="2" speed="13.89" length="272.80" shape="148.40,286.40 148.40,13.60"/>
    </edge>
    <edge id="L16" from="3" to="6" priority="1">
        <lane id="L16_0" index="0" speed="13.89" length="272.80" shape="158.00,13.60 158.00,286.40"/>
        <lane id="L16_1" index="1" speed="13.89" length="272.80" shape="154.80,13.60 154.80,286.40"/>
        <lane id="L16_2" index="2" speed="13.89" length="272.80" shape="151.60,13.60 151.60,286.40"/>
    </edge>
    <edge id="L17" from="4" to="3" priority="1">
        <lane id="L17_0" index="0" speed="13.89" length="132.40" shape="296.00,8.00 163.60,8.00"/>
        <lane id="L17_1" index="1" speed="13.89" length="132.40" shape="296.00,4.80 163.60,4.80"/>
        <lane id="L17_2" index="2" speed="13.89" length="132.40" shape="296.00,1.60 163.60,1.60"/>
    </edge>
    <edge id="L18" from="3" to="4" priority="1">
        <lane id="L18_0" index="0" speed="13.89" length="132.40" shape="163.60,-8.00 296.00,-8.00"/>
        <lane id="L18_1" index="1" speed="13.89" length="132.40" shape="163.60,-4.80 296.00,-4.80"/>
        <lane id="L18_2" index="2" speed="13.89" length="132.40" shape="163.60,-1.60 296.00,-1.60"/>
    </edge>
    <edge id="L2" from="911" to="1" priority="1">
        <lane id="L2_0" index="0" speed="13.89" length="146.00" shape="-150.00,295.20 -4.00,295.20"/>
        <lane id="L2_1" index="1" speed="13.89" length="146.00" shape="-150.00,298.40 -4.00,298.40"/>
    </edge>
    <edge id="L3" from="2" to="912" priority="1">
        <lane id="L3_0" index="0" speed="13.89" length="146.00" shape="-4.00,8.00 -150.00,8.00"/>
        <lane id="L3_1" index="1" speed="13.89" length="146.00" shape="-4.00,4.80 -150.00,4.80"/>
        <lane id="L3_2" index="2" speed="13.89" length="146.00" shape="-4.00,1.60 -150.00,1.60"/>
    </edge>
    <edge id="L4" from="912" to="2" priority="1">
        <lane id="L4_0" index="0" speed="13.89" length="146.00" shape="-150.00,-4.80 -4.00,-4.80"/>
        <lane id="L4_1" index="1" speed="13.89" length="146.00" shape="-150.00,-1.60 -4.00,-1.60"/>
    </edge>
    <edge id="L5" from="4" to="913" priority="1">
        <lane id="L5_0" index="0" speed="13.89" length="196.00" shape="304.00,-8.00 500.00,-8.00"/>
        <lane id="L5_1" index="1" speed="13.89" length="196.00" shape="304.00,-4.80 500.00,-4.80"/>
        <lane id="L5_2" index="2" speed="13.89" length="196.00" shape="304.00,-1.60 500.00,-1.60"/>
    </edge>
    <edge id="L6" from="913" to="4" priority="1">
        <lane id="L6_0" index="0" speed="13.89" length="196.00" shape="500.00,4.80 304.00,4.80"/>
        <lane id="L6_1" index="1" speed="13.89" length="196.00" shape="500.00,1.60 304.00,1.60"/>
    </edge>
    <edge id="L7" from="5" to="914" priority="1">
        <lane id="L7_0" index="0" speed="13.89" length="196.00" shape="304.00,292.00 500.00,292.00"/>
        <lane id="L7_1" index="1" speed="13.89" length="196.00" shape="304.00,295.20 500.00,295.20"/>
        <lane id="L7_2" index="2" speed="13.89" length="196.00" shape="304.00,298.40 500.00,298.40"/>
    </edge>
    <edge id="L8" from="914" to="5" priority="1">
        <lane id="L8_0" index="0" speed="13.89" length="196.00" shape="500.00,304.80 304.00,304.80"/>
        <lane id="L8_1" index="1" speed="13.89" length="196.00" shape="500.00,301.60 304.00,301.60"/>
    </edge>
    <edge id="L9" from="5" to="6" priority="1">
        <lane id="L9_0" index="0" speed="13.89" length="132.40" shape="296.00,308.00 163.60,308.00"/>
        <lane id="L9_1" index="1" speed="13.89" length="132.40" shape="296.00,304.80 163.60,304.80"/>
        <lane id="L9_2" index="2" speed="13.89" length="132.40" shape="296.00,301.60 163.60,301.60"/>
    </edge>

    <junction id="1" type="priority" x="0.00" y="300.00" incLanes="L11_0 L11_1 L11_2 L2_0 L2_1" intLanes=":1_0_0 :1_0_1 :1_0_2 :1_3_0 :1_3_1 :1_3_2" shape="4.00,309.60 4.00,290.40 0.97,291.23 -0.97,292.77 -2.21,293.36 -4.00,293.60 -4.00,309.60">
        <request index="0" response="000000" foes="000000" cont="0"/>
        <request index="1" response="000000" foes="000000" cont="0"/>
        <request index="2" response="000000" foes="000000" cont="0"/>
        <request index="3" response="000000" foes="000000" cont="0"/>
        <request index="4" response="000000" foes="000000" cont="0"/>
        <request index="5" response="000000" foes="000000" cont="0"/>
    </junction>
    <junction id="2" type="priority" x="0.00" y="0.00" incLanes="L13_0 L13_1 L13_2 L4_0 L4_1" intLanes=":2_0_0 :2_0_1 :2_0_2 :2_3_0 :2_3_1 :2_3_2" shape="4.00,9.60 4.00,-9.60 0.97,-8.77 -0.97,-7.23 -2.21,-6.64 -4.00,-6.40 -4.00,9.60">
        <request index="0" response="000000" foes="000000" cont="0"/>
        <request index="1" response="000000" foes="000000" cont="0"/>
        <request index="2" response="000000" foes="000000" cont="0"/>
        <request index="3" response="000000" foes="000000" cont="0"/>
        <request index="4" response="000000" foes="000000" cont="0"/>
        <request index="5" response="000000" foes="000000" cont="0"/>
    </junction>
    <junction id="3" type="priority" x="150.00" y="0.00" incLanes="L15_0 L15_1 L15_2 L17_0 L17_1 L17_2 L14_0 L14_1 L14_2" intLanes=":3_0_0 :3_1_0 :3_1_1 :3_3_0 :3_4_0 :3_17_0 :3_18_0 :3_7_0 :3_7_1 :3_7_2 :3_10_0 :3_10_1 :3_10_2 :3_19_0 :3_20_0 :3_15_0 :3_21_0" shape="140.40,13.60 159.60,13.60 160.04,11.38 160.60,10.60 161.38,10.04 162.38,9.71 163.60,9.60 163.60,-9.60 136.40,-9.60 136.40,9.60 138.62,10.04 139.40,10.60 139.96,11.38 140.29,12.38">
        <request index="0"  response="00000001110010000" foes="00000001110010000" cont="0"/>
        <request index="1"  response="11111111110010000" foes="11111111110010000" cont="0"/>
        <request index="2"  response="11111111110010000" foes="11111111110010000" cont="0"/>
        <request index="3"  response="00000000000000000" foes="10110000000000000" cont="0"/>
        <request index="4"  response="00000000010000000" foes="10110000011100111" cont="0"/>
        <request index="5"  response="00000000000010000" foes="10110000000010000" cont="1"/>
        <request index="6"  response="00000000000010000" foes="10110000000010000" cont="1"/>
        <request index="7"  response="00000000000000000" foes="10110000000010111" cont="0"/>
        <request index="8"  response="00000000000000000" foes="10110000000000111" cont="0"/>
        <request index="9"  response="00000000000000000" foes="10110000000000111" cont="0"/>
        <request index="10" response="00000000000000000" foes="00000000000000110" cont="0"/>
        <request index="11" response="00000000000000000" foes="00000000000000110" cont="0"/>
        <request index="12" response="01000000000000000" foes="01000000000000110" cont="0"/>
        <request index="13" response="01000001111111000" foes="01000001111111110" cont="1"/>
        <request index="14" response="01000001111111000" foes="01000001111111110" cont="1"/>
        <request index="15" response="00000000000000000" foes="00111000000000110" cont="0"/>
        <request index="16" response="00000001111111000" foes="00000001111111110" cont="1"/>
    </junction>
    <junction id="4" type="priority" x="300.00" y="0.00" incLanes="L6_0 L6_1 L18_0 L18_1 L18_2" intLanes=":4_0_0 :4_0_1 :4_0_2 :4_3_0 :4_3_1 :4_3_2" shape="304.00,6.40 304.00,-9.60 296.00,-9.60 296.00,9.60 299.03,8.77 300.97,7.23 302.21,6.64">
        <request index="0" response="000000" foes="000000" cont="0"/>
        <request index="1" response="000000" foes="000000" cont="0"/>
        <request index="2" response="000000" foes="000000" cont="0"/>
        <request index="3" response="000000" foes="000000" cont="0"/>
        <request index="4" response="000000" foes="000000" cont="0"/>
        <request index="5" response="000000" foes="000000" cont="0"/>
    </junction>
    <junction id="5" type="priority" x="300.00" y="300.00" incLanes="L8_0 L8_1 L10_0 L10_1 L10_2" intLanes=":5_0_0 :5_0_1 :5_0_2 :5_3_0 :5_3_1 :5_3_2" shape="304.00,306.40 304.00,290.40 296.00,290.40 296.00,309.60 299.03,308.77 300.97,307.23 302.21,306.64">
        <request index="0" response="000000" foes="000000" cont="0"/>
        <request index="1" response="000000" foes="000000" cont="0"/>
        <request index="2" response="000000" foes="000000" cont="0"/>
        <request index="3" response="000000" foes="000000" cont="0"/>
        <request index="4" response="000000" foes="000000" cont="0"/>
        <request index="5" response="000000" foes="000000" cont="0"/>
    </junction>
    <junction id="6" type="priority" x="150.00" y="300.00" incLanes="L9_0 L9_1 L9_2 L16_0 L16_1 L16_2 L12_0 L12_1 L12_2" intLanes=":6_0_0 :6_0_1 :6_0_2 :6_0_3 :6_17_0 :6_18_0 :6_6_0 :6_6_1 :6_6_2 :6_9_0 :6_9_1 :6_11_0 :6_12_0 :6_19_0 :6_14_0 :6_14_1 :6_14_2" shape="163.60,309.60 163.60,290.40 161.38,289.96 160.60,289.40 160.04,288.62 159.71,287.62 159.60,286.40 140.40,286.40 139.96,288.62 139.40,289.40 138.62,289.96 137.62,290.29 136.40,290.40 136.40,309.60">
        <request index="0"  response="00000000000000000" foes="00000011000000000" cont="0"/>
        <request index="1"  response="00000000000000000" foes="00000011000000000" cont="0"/>
        <request index="2"  response="00000000000001000" foes="00000011000001000" cont="0"/>
        <request index="3"  response="00000000000000000" foes="00000011000000100" cont="0"/>
        <request index="4"  response="11111100000000000" foes="11111111000000000" cont="1"/>
        <request index="5"  response="11111100000000000" foes="11111111000000000" cont="1"/>
        <request index="6"  response="11101000000000000" foes="11101000000000000" cont="0"/>
        <request index="7"  response="11101000000000000" foes="11101000000000000" cont="0"/>
        <request index="8"  response="11101000000000000" foes="11101000000000000" cont="0"/>
        <request index="9"  response="11101000000111111" foes="11101000000111111" cont="0"/>
        <request index="10" response="11101000000111111" foes="11101000000111111" cont="0"/>
        <request index="11" response="00000000000000000" foes="00000000000110000" cont="0"/>
        <request index="12" response="00100000000000000" foes="00110011111110000" cont="0"/>
        <request index="13" response="00001000000000000" foes="00001000000110000" cont="1"/>
        <request index="14" response="00000000000000000" foes="00001011111110000" cont="0"/>
        <request index="15" response="00000000000000000" foes="00000011111110000" cont="0"/>
        <request index="16" response="00000000000000000" foes="00000011111110000" cont="0"/>
    </junction>
    <junction id="91" type="dead_end" x="-300.00" y="300.00" incLanes="D1_0 D1_1 D1_2" intLanes="" shape="-300.00,300.00 -300.00,309.60 -300.00,300.00"/>
    <junction id="911" type="priority" x="-150.00" y="300.00" incLanes="L1_0 L1_1 L1_2 D2_0 D2_1" intLanes=":911_0_0 :911_0_1 :911_0_2 :911_3_0 :911_3_1" shape="-150.00,309.60 -150.00,293.60 -150.00,309.60">
        <request index="0" response="00000" foes="00000" cont="0"/>
        <request index="1" response="00000" foes="00000" cont="0"/>
        <request index="2" response="00000" foes="00000" cont="0"/>
        <request index="3" response="00000" foes="00000" cont="0"/>
        <request index="4" response="00000" foes="00000" cont="0"/>
    </junction>
    <junction id="912" type="priority" x="-150.00" y="0.00" incLanes="L3_0 L3_1 L3_2 D4_0 D4_1" intLanes=":912_0_0 :912_0_1 :912_0_2 :912_3_0 :912_3_1" shape="-150.00,9.60 -150.00,-6.40 -150.00,9.60">